MIQ
  CCTOOLS-0919241035

 42 45  0  0  1  0  0  0  0  0999 V2000
    0.7240   -2.3470    0.6060 O   0  0  0  0  0
    0.6320   -1.1770    0.2940 C   0  0  0  0  0
   -0.6270   -0.4100    0.1810 C   0  0  0  0  0
   -1.9630   -0.7150    0.3630 C   0  0  0  0  0
   -2.9300    0.2720    0.1700 C   0  0  0  0  0
   -5.1180    1.1470    0.0990 C   0  0  0  0  0
   -6.5820    0.7870    0.3680 C   0  0  0  0  0
   -6.1490   -1.4930   -0.2270 C   0  0  0  0  0
   -4.6820   -1.1560   -0.5020 C   0  0  0  0  0
   -2.5540    1.5580   -0.2040 C   0  0  0  0  0
   -1.2200    1.8710   -0.3880 C   0  0  0  0  0
   -0.2490    0.8960   -0.1980 C   0  0  0  0  0
    1.2220    0.8760   -0.3030 C   0  0  0  0  0
    3.0670   -0.7630    0.0020 C   0  0  0  0  0
    3.8260    0.0750    0.9970 C   0  0  0  0  0
    5.8070   -0.0300   -0.2690 C   0  0  0  0  0
    5.1620   -0.8730   -1.3360 C   0  0  0  0  0
    3.6640   -0.5520   -1.3930 C   0  0  0  0  0
    1.6580   -0.3600   -0.0020 N   0  0  0  0  0
    5.1200    0.3780    0.8080 N   0  0  0  0  0
   -4.2750   -0.0300    0.3520 N   0  0  0  0  0
    1.9230    1.8200   -0.6110 O   0  0  0  0  0
    6.9720    0.2870   -0.3850 O   0  0  0  0  0
    3.2590    0.4820    1.9870 O   0  0  0  0  0
   -6.9500   -0.3290   -0.4480 O   0  0  0  0  0
   -2.2570   -1.7140    0.6520 H   0  0  0  0  0
   -5.0050    1.4600   -0.9390 H   0  0  0  0  0
   -4.8170    1.9600    0.7590 H   0  0  0  0  0
   -6.7050    0.5260    1.4190 H   0  0  0  0  0
   -7.2170    1.6390    0.1260 H   0  0  0  0  0
   -6.4720   -2.2890   -0.8980 H   0  0  0  0  0
   -6.2600   -1.8200    0.8070 H   0  0  0  0  0
   -4.0610   -2.0240   -0.2800 H   0  0  0  0  0
   -4.5620   -0.8800   -1.5500 H   0  0  0  0  0
   -3.3080    2.3160   -0.3520 H   0  0  0  0  0
   -0.9340    2.8710   -0.6790 H   0  0  0  0  0
    3.1450   -1.8150    0.2770 H   0  0  0  0  0
    5.6180   -0.6520   -2.3010 H   0  0  0  0  0
    5.3000   -1.9280   -1.1000 H   0  0  0  0  0
    3.1740   -1.2170   -2.1050 H   0  0  0  0  0
    3.5230    0.4840   -1.6990 H   0  0  0  0  0
    5.5750    0.9130    1.4770 H   0  0  0  0  0
  2  3  1  0  0  0
  2 19  1  0  0  0
  2  1  2  0  0  0
  3  4  1  0  0  0
  4  5  2  0  0  0
  4 26  1  0  0  0
  5 21  1  0  0  0
  6  7  1  0  0  0
  6 21  1  0  0  0
  6 27  1  0  0  0
  6 28  1  0  0  0
  7 25  1  0  0  0
  7 29  1  0  0  0
  7 30  1  0  0  0
  8  9  1  0  0  0
  8 25  1  0  0  0
  8 31  1  0  0  0
  8 32  1  0  0  0
  9 21  1  0  0  0
  9 33  1  0  0  0
  9 34  1  0  0  0
 10 11  2  0  0  0
 10  5  1  0  0  0
 10 35  1  0  0  0
 11 12  1  0  0  0
 11 36  1  0  0  0
 12 13  1  0  0  0
 12  3  2  0  0  0
 13 19  1  0  0  0
 13 22  2  0  0  0
 14 15  1  0  0  0
 14 18  1  0  0  0
 14 19  1  0  0  0
 14 37  1  0  0  0
 15 20  1  0  0  0
 15 24  2  0  0  0
 16 17  1  0  0  0
 16 20  1  0  0  0
 16 23  2  0  0  0
 17 18  1  0  0  0
 17 38  1  0  0  0
 17 39  1  0  0  0
 18 40  1  0  0  0
 18 41  1  0  0  0
 20 42  1  0  0  0
M  END
$$$$
